/*--------------------------------*- C++ -*----------------------------------*\
| =========                 |                                                 |
| \\      /  F ield         | OpenFOAM: The Open Source CFD Toolbox           |
|  \\    /   O peration     | Version:  v1912                                 |
|   \\  /    A nd           | Website:  www.openfoam.com                      |
|    \\/     M anipulation  |                                                 |
\*---------------------------------------------------------------------------*/
FoamFile
{
    version     2.0;
    format      ascii;
    class       dictionary;
    object      blockMeshDict;
}
// * * * * * * * * * * * * * * * * * * * * * * * * * * * * * * * * * * * * * //

scale   1;

vertices
(

    (-0.1 -0.1 -0.07)
    (0.1 -0.1 -0.07)
    (0.1 0.1 -0.07)
    (-0.1 0.1 -0.07)
    (-0.1 -0.1 0.07)
    (0.1 -0.1 0.07)
    (0.1 0.1 0.07)
    (-0.1 0.1 0.07)

);

blocks
(
    //hex (0 1 2 3 4 5 6 7) (320 80 40) simpleGrading (1 1 1)
    hex (0 1 2 3 4 5 6 7) (100 100 43) simpleGrading (1 1 1)
    // (8 9 10 11 12 13 14 15) 

);


boundary               // keyword
(
    inlet              // patch name
    {
        type patch;    // patch type for patch 0
        faces
        (
            (0 4 7 3)  // block face in this patch
        );
    }                  // end of 0th patch definition
    walls
    {
        type wall;
        faces
        (
            (0 1 5 4)
            (0 3 2 1)
            (3 7 6 2)
            (4 5 6 7)
        );
    }
    outlet
    {
        type patch;
        faces
        (
            (1 2 6 5)
        );
    }
);


// ************************************************************************* //
