/*--------------------------------*- C++ -*----------------------------------*\
| =========                 |                                                 |
| \\      /  F ield         | OpenFOAM: The Open Source CFD Toolbox           |
|  \\    /   O peration     | Version:  5                                     |
|   \\  /    A nd           | Web:      www.OpenFOAM.org                      |
|    \\/     M anipulation  |                                                 |
\*---------------------------------------------------------------------------*/
FoamFile
{
    version     2.0;
    format      ascii;
    class       dictionary;
    object      fvSolution;
}
// * * * * * * * * * * * * * * * * * * * * * * * * * * * * * * * * * * * * * //

solvers
{
    "pcorr.*"
    {
        solver          GAMG;
        tolerance       1e-2;
        relTol          0;
        smoother        DICGaussSeidel;
        cacheAgglomeration no;
        maxIter         80;
    }

    p
    {
        $pcorr;
        tolerance       1e-5;
        relTol          0.01;
    }

    pFinal
    {
        $p;
        tolerance       1e-6;
        relTol          0;
    }

    "(U|k|epsilon)"
    {
        solver          smoothSolver;
        smoother        symGaussSeidel;
        tolerance       1e-6;
        relTol          0.1;
    }

    "(U|k|epsilon)Final"
    {
        solver          smoothSolver;
        smoother        symGaussSeidel;
        tolerance       1e-6;
        relTol          0;
    }
}

PIMPLE
{
    correctPhi          no;
    nOuterCorrectors    50;
    nCorrectors         10;
    nNonOrthogonalCorrectors 10;
    pRefCell        0;
    pRefValue       0;
 /*   
    residualControl
    {
    U   1e-05;
    p   1e-04;
    }

*/
    //residualControl
    outerCorrectorResidualControl
    {
        U
        {
                tolerance  1e-5;
                relTol      0;
        }
        p
        {
                tolerance  1e-5;
                relTol      0;
        }
     }
}

/*relaxationFactors
{
    "(U|k|epsilon).*"   1;
}*/

cache
{
    grad(U);
}

relaxationFactors
{
     fields
     {
    p   0.5;
    pFinal  1;

     }

     equations
     {
    "U|k|epsilon"   0.5;
    "(U|k|epsilon)Final"   1;
     }

}
