/*--------------------------------*- C++ -*----------------------------------*\
| =========                 |                                                 |
| \\      /  F ield         | OpenFOAM: The Open Source CFD Toolbox           |
|  \\    /   O peration     | Version:  2406                                  |
|   \\  /    A nd           | Website:  www.openfoam.com                      |
|    \\/     M anipulation  |                                                 |
\*---------------------------------------------------------------------------*/
FoamFile
{
    version     2.0;
    format      binary;
    arch        "LSB;label=32;scalar=64";
    class       polyBoundaryMesh;
    location    "constant/polyMesh";
    object      boundary;
}
// * * * * * * * * * * * * * * * * * * * * * * * * * * * * * * * * * * * * * //

4
(
    inlet
    {
        type            patch;
        nFaces          1600;
        startFace       365439;
    }
    outlet
    {
        type            patch;
        nFaces          1600;
        startFace       367039;
    }
    sides
    {
        type            patch;
        nFaces          6400;
        startFace       368639;
    }
    crazyflieBody
    {
        type            wall;
        inGroups        1(wall);
        nFaces          20;
        startFace       375039;
    }
)

// ************************************************************************* //
